DSS_original/FLX_DG_Caso06.dss
New PVSystem.PV1FFLX001 bus1=BUSLVFLX1295.1.2 kV=0.24 phases=1 kVA=1 PF=1 conn=wye irrad=1.00 Pmpp=1 temperature=25 effcurve=Myeff P-TCurve=MyPvsT Daily=PVprofile TDaily=PVtemp %cutin=0.01 %cutout=0.01 enabled=yes 
New PVSystem.PV1FFLX002 bus1=BUSLVFLX1299.1.2 kV=0.24 phases=1 kVA=1 PF=1 conn=wye irrad=1.00 Pmpp=1 temperature=25 effcurve=Myeff P-TCurve=MyPvsT Daily=PVprofile TDaily=PVtemp %cutin=0.01 %cutout=0.01 enabled=yes 
New PVSystem.PV1FFLX003 bus1=BUSLVFLX1300.1.2 kV=0.24 phases=1 kVA=1 PF=1 conn=wye irrad=1.00 Pmpp=1 temperature=25 effcurve=Myeff P-TCurve=MyPvsT Daily=PVprofile TDaily=PVtemp %cutin=0.01 %cutout=0.01 enabled=yes 
New PVSystem.PV1FFLX004 bus1=BUSLVFLX1328.1.2 kV=0.24 phases=1 kVA=1 PF=1 conn=wye irrad=1.00 Pmpp=1 temperature=25 effcurve=Myeff P-TCurve=MyPvsT Daily=PVprofile TDaily=PVtemp %cutin=0.01 %cutout=0.01 enabled=yes 
New PVSystem.PV1FFLX005 bus1=BUSLVFLX1341.1.2 kV=0.24 phases=1 kVA=1 PF=1 conn=wye irrad=1.00 Pmpp=1 temperature=25 effcurve=Myeff P-TCurve=MyPvsT Daily=PVprofile TDaily=PVtemp %cutin=0.01 %cutout=0.01 enabled=yes 
New PVSystem.PV1FFLX006 bus1=BUSLVFLX1348.1.2 kV=0.24 phases=1 kVA=1 PF=1 conn=wye irrad=1.00 Pmpp=1 temperature=25 effcurve=Myeff P-TCurve=MyPvsT Daily=PVprofile TDaily=PVtemp %cutin=0.01 %cutout=0.01 enabled=yes 
New PVSystem.PV1FFLX007 bus1=BUSLVFLX1353.1.2 kV=0.24 phases=1 kVA=1 PF=1 conn=wye irrad=1.00 Pmpp=1 temperature=25 effcurve=Myeff P-TCurve=MyPvsT Daily=PVprofile TDaily=PVtemp %cutin=0.01 %cutout=0.01 enabled=yes 
New PVSystem.PV1FFLX008 bus1=BUSLVFLX1371.1.2 kV=0.24 phases=1 kVA=1 PF=1 conn=wye irrad=1.00 Pmpp=1 temperature=25 effcurve=Myeff P-TCurve=MyPvsT Daily=PVprofile TDaily=PVtemp %cutin=0.01 %cutout=0.01 enabled=yes 
New PVSystem.PV1FFLX009 bus1=BUSLVFLX1372.1.2 kV=0.24 phases=1 kVA=1 PF=1 conn=wye irrad=1.00 Pmpp=1 temperature=25 effcurve=Myeff P-TCurve=MyPvsT Daily=PVprofile TDaily=PVtemp %cutin=0.01 %cutout=0.01 enabled=yes 
New PVSystem.PV1FFLX010 bus1=BUSLVFLX1378.1.2 kV=0.24 phases=1 kVA=1 PF=1 conn=wye irrad=1.00 Pmpp=1 temperature=25 effcurve=Myeff P-TCurve=MyPvsT Daily=PVprofile TDaily=PVtemp %cutin=0.01 %cutout=0.01 enabled=yes
New PVSystem.PV1FFLX011 bus1=BUSLVFLX1382.1.2 kV=0.24 phases=1 kVA=1 PF=1 conn=wye irrad=1.00 Pmpp=1 temperature=25 effcurve=Myeff P-TCurve=MyPvsT Daily=PVprofile TDaily=PVtemp %cutin=0.01 %cutout=0.01 enabled=yes
New PVSystem.PV1FFLX012 bus1=BUSLVFLX1385.1.2 kV=0.24 phases=1 kVA=1 PF=1 conn=wye irrad=1.00 Pmpp=1 temperature=25 effcurve=Myeff P-TCurve=MyPvsT Daily=PVprofile TDaily=PVtemp %cutin=0.01 %cutout=0.01 enabled=yes 
New PVSystem.PV1FFLX013 bus1=BUSLVFLX1386.1.2 kV=0.24 phases=1 kVA=1 PF=1 conn=wye irrad=1.00 Pmpp=1 temperature=25 effcurve=Myeff P-TCurve=MyPvsT Daily=PVprofile TDaily=PVtemp %cutin=0.01 %cutout=0.01 enabled=yes 
New PVSystem.PV1FFLX014 bus1=BUSLVFLX1393.1.2 kV=0.24 phases=1 kVA=1 PF=1 conn=wye irrad=1.00 Pmpp=1 temperature=25 effcurve=Myeff P-TCurve=MyPvsT Daily=PVprofile TDaily=PVtemp %cutin=0.01 %cutout=0.01 enabled=yes 
New PVSystem.PV1FFLX015 bus1=BUSLVFLX1396.1.2 kV=0.24 phases=1 kVA=1 PF=1 conn=wye irrad=1.00 Pmpp=1 temperature=25 effcurve=Myeff P-TCurve=MyPvsT Daily=PVprofile TDaily=PVtemp %cutin=0.01 %cutout=0.01 enabled=yes
New PVSystem.PV1FFLX016 bus1=BUSLVFLX1303.1.2 kV=0.24 phases=1 kVA=1 PF=1 conn=wye irrad=1.00 Pmpp=1 temperature=25 effcurve=Myeff P-TCurve=MyPvsT Daily=PVprofile TDaily=PVtemp %cutin=0.01 %cutout=0.01 enabled=yes
New PVSystem.PV1FFLX017 bus1=BUSLVFLX1306.1.2 kV=0.24 phases=1 kVA=1 PF=1 conn=wye irrad=1.00 Pmpp=1 temperature=25 effcurve=Myeff P-TCurve=MyPvsT Daily=PVprofile TDaily=PVtemp %cutin=0.01 %cutout=0.01 enabled=yes 
New PVSystem.PV1FFLX018 bus1=BUSLVFLX1310.1.2 kV=0.24 phases=1 kVA=1 PF=1 conn=wye irrad=1.00 Pmpp=1 temperature=25 effcurve=Myeff P-TCurve=MyPvsT Daily=PVprofile TDaily=PVtemp %cutin=0.01 %cutout=0.01 enabled=yes 
New PVSystem.PV1FFLX019 bus1=BUSLVFLX1339.1.2 kV=0.24 phases=1 kVA=1 PF=1 conn=wye irrad=1.00 Pmpp=1 temperature=25 effcurve=Myeff P-TCurve=MyPvsT Daily=PVprofile TDaily=PVtemp %cutin=0.01 %cutout=0.01 enabled=yes 
New PVSystem.PV1FFLX020 bus1=BUSLVFLX1343.1.2 kV=0.24 phases=1 kVA=1 PF=1 conn=wye irrad=1.00 Pmpp=1 temperature=25 effcurve=Myeff P-TCurve=MyPvsT Daily=PVprofile TDaily=PVtemp %cutin=0.01 %cutout=0.01 enabled=yes 
New PVSystem.PV1FFLX021 bus1=BUSLVFLX1352.1.2 kV=0.24 phases=1 kVA=1 PF=1 conn=wye irrad=1.00 Pmpp=1 temperature=25 effcurve=Myeff P-TCurve=MyPvsT Daily=PVprofile TDaily=PVtemp %cutin=0.01 %cutout=0.01 enabled=yes 
New PVSystem.PV1FFLX022 bus1=BUSLVFLX1367.1.2 kV=0.24 phases=1 kVA=1 PF=1 conn=wye irrad=1.00 Pmpp=1 temperature=25 effcurve=Myeff P-TCurve=MyPvsT Daily=PVprofile TDaily=PVtemp %cutin=0.01 %cutout=0.01 enabled=yes 
New PVSystem.PV1FFLX023 bus1=BUSLVFLX1368.1.2 kV=0.24 phases=1 kVA=1 PF=1 conn=wye irrad=1.00 Pmpp=1 temperature=25 effcurve=Myeff P-TCurve=MyPvsT Daily=PVprofile TDaily=PVtemp %cutin=0.01 %cutout=0.01 enabled=yes 
New PVSystem.PV1FFLX024 bus1=BUSLVFLX1383.1.2 kV=0.24 phases=1 kVA=1 PF=1 conn=wye irrad=1.00 Pmpp=1 temperature=25 effcurve=Myeff P-TCurve=MyPvsT Daily=PVprofile TDaily=PVtemp %cutin=0.01 %cutout=0.01 enabled=yes 
New PVSystem.PV1FFLX025 bus1=BUSLVFLX1397.1.2 kV=0.24 phases=1 kVA=1 PF=1 conn=wye irrad=1.00 Pmpp=1 temperature=25 effcurve=Myeff P-TCurve=MyPvsT Daily=PVprofile TDaily=PVtemp %cutin=0.01 %cutout=0.01 enabled=yes 
New PVSystem.PV1FFLX026 bus1=BUSLVFLX1308.1.2 kV=0.24 phases=1 kVA=1 PF=1 conn=wye irrad=1.00 Pmpp=1 temperature=25 effcurve=Myeff P-TCurve=MyPvsT Daily=PVprofile TDaily=PVtemp %cutin=0.01 %cutout=0.01 enabled=yes
New PVSystem.PV1FFLX027 bus1=BUSLVFLX1313.1.2 kV=0.24 phases=1 kVA=1 PF=1 conn=wye irrad=1.00 Pmpp=1 temperature=25 effcurve=Myeff P-TCurve=MyPvsT Daily=PVprofile TDaily=PVtemp %cutin=0.01 %cutout=0.01 enabled=yes
New PVSystem.PV1FFLX028 bus1=BUSLVFLX1319.1.2 kV=0.24 phases=1 kVA=1 PF=1 conn=wye irrad=1.00 Pmpp=1 temperature=25 effcurve=Myeff P-TCurve=MyPvsT Daily=PVprofile TDaily=PVtemp %cutin=0.01 %cutout=0.01 enabled=yes 
New PVSystem.PV1FFLX029 bus1=BUSLVFLX1336.1.2 kV=0.24 phases=1 kVA=1 PF=1 conn=wye irrad=1.00 Pmpp=1 temperature=25 effcurve=Myeff P-TCurve=MyPvsT Daily=PVprofile TDaily=PVtemp %cutin=0.01 %cutout=0.01 enabled=yes 
New PVSystem.PV1FFLX030 bus1=BUSLVFLX1344.1.2 kV=0.24 phases=1 kVA=1 PF=1 conn=wye irrad=1.00 Pmpp=1 temperature=25 effcurve=Myeff P-TCurve=MyPvsT Daily=PVprofile TDaily=PVtemp %cutin=0.01 %cutout=0.01 enabled=yes 
New PVSystem.PV1FFLX031 bus1=BUSLVFLX1347.1.2 kV=0.24 phases=1 kVA=1 PF=1 conn=wye irrad=1.00 Pmpp=1 temperature=25 effcurve=Myeff P-TCurve=MyPvsT Daily=PVprofile TDaily=PVtemp %cutin=0.01 %cutout=0.01 enabled=yes
New PVSystem.PV1FFLX032 bus1=BUSLVFLX1350.1.2 kV=0.24 phases=1 kVA=1 PF=1 conn=wye irrad=1.00 Pmpp=1 temperature=25 effcurve=Myeff P-TCurve=MyPvsT Daily=PVprofile TDaily=PVtemp %cutin=0.01 %cutout=0.01 enabled=yes 
New PVSystem.PV1FFLX033 bus1=BUSLVFLX1360.1.2 kV=0.24 phases=1 kVA=1 PF=1 conn=wye irrad=1.00 Pmpp=1 temperature=25 effcurve=Myeff P-TCurve=MyPvsT Daily=PVprofile TDaily=PVtemp %cutin=0.01 %cutout=0.01 enabled=yes 
New PVSystem.PV1FFLX034 bus1=BUSLVFLX1374.1.2 kV=0.24 phases=1 kVA=1 PF=1 conn=wye irrad=1.00 Pmpp=1 temperature=25 effcurve=Myeff P-TCurve=MyPvsT Daily=PVprofile TDaily=PVtemp %cutin=0.01 %cutout=0.01 enabled=yes 
New PVSystem.PV1FFLX035 bus1=BUSLVFLX1376.1.2 kV=0.24 phases=1 kVA=1 PF=1 conn=wye irrad=1.00 Pmpp=1 temperature=25 effcurve=Myeff P-TCurve=MyPvsT Daily=PVprofile TDaily=PVtemp %cutin=0.01 %cutout=0.01 enabled=yes
New PVSystem.PV1FFLX036 bus1=BUSLVFLX1379.1.2 kV=0.24 phases=1 kVA=1 PF=1 conn=wye irrad=1.00 Pmpp=1 temperature=25 effcurve=Myeff P-TCurve=MyPvsT Daily=PVprofile TDaily=PVtemp %cutin=0.01 %cutout=0.01 enabled=yes